<?xml version="1.0" encoding="UTF-8"?>

<!-- generated on 2023-04-01 18:00:34 by Eclipse SUMO netconvert Version 1.16.0
<configuration xmlns:xsi="http://www.w3.org/2001/XMLSchema-instance" xsi:noNamespaceSchemaLocation="http://sumo.dlr.de/xsd/netconvertConfiguration.xsd">

    <input>
        <type-files value="osmNetconvert.typ.xml"/>
        <osm-files value="map.osm"/>
    </input>

    <output>
        <output-file value="test.net.xml"/>
    </output>

    <projection>
        <proj.utm value="true"/>
    </projection>

    <report>
        <xml-validation value="never"/>
    </report>

</configuration>
-->

<net version="1.16" junctionCornerDetail="5" limitTurnSpeed="5.50" xmlns:xsi="http://www.w3.org/2001/XMLSchema-instance" xsi:noNamespaceSchemaLocation="http://sumo.dlr.de/xsd/net_file.xsd">

    <location netOffset="-501729.74,-4393450.83" convBoundary="0.00,0.00,594.17,2844.93" origBoundary="-104.979821,39.690895,-104.972889,39.716529" projParameter="+proj=utm +zone=13 +ellps=WGS84 +datum=WGS84 +units=m +no_defs"/>

    <type id="highway.bridleway" priority="1" numLanes="1" speed="2.78" allow="pedestrian" oneway="1" width="2.00"/>
    <type id="highway.bus_guideway" priority="1" numLanes="1" speed="27.78" allow="bus" oneway="1"/>
    <type id="highway.cycleway" priority="1" numLanes="1" speed="5.56" allow="bicycle" oneway="0" width="1.00"/>
    <type id="highway.footway" priority="1" numLanes="1" speed="2.78" allow="pedestrian" oneway="1" width="2.00"/>
    <type id="highway.ford" priority="1" numLanes="1" speed="2.78" allow="army" oneway="0"/>
    <type id="highway.living_street" priority="2" numLanes="1" speed="2.78" disallow="tram rail_urban rail rail_electric rail_fast ship" oneway="0"/>
    <type id="highway.motorway" priority="14" numLanes="2" speed="39.44" allow="private emergency authority army vip passenger hov taxi bus coach delivery truck trailer motorcycle evehicle custom1 custom2" oneway="1"/>
    <type id="highway.motorway_link" priority="9" numLanes="1" speed="22.22" allow="private emergency authority army vip passenger hov taxi bus coach delivery truck trailer motorcycle evehicle custom1 custom2" oneway="1"/>
    <type id="highway.path" priority="1" numLanes="1" speed="5.56" allow="pedestrian bicycle" oneway="0" width="2.00"/>
    <type id="highway.pedestrian" priority="1" numLanes="1" speed="2.78" allow="pedestrian" oneway="1" width="2.00"/>
    <type id="highway.primary" priority="12" numLanes="2" speed="27.78" disallow="tram rail_urban rail rail_electric rail_fast ship" oneway="0"/>
    <type id="highway.primary_link" priority="7" numLanes="1" speed="22.22" disallow="tram rail_urban rail rail_electric rail_fast ship" oneway="0"/>
    <type id="highway.raceway" priority="15" numLanes="2" speed="83.33" allow="vip" oneway="0"/>
    <type id="highway.residential" priority="3" numLanes="1" speed="13.89" disallow="tram rail_urban rail rail_electric rail_fast ship" oneway="0"/>
    <type id="highway.secondary" priority="11" numLanes="1" speed="27.78" disallow="tram rail_urban rail rail_electric rail_fast ship" oneway="0"/>
    <type id="highway.secondary_link" priority="6" numLanes="1" speed="22.22" disallow="tram rail_urban rail rail_electric rail_fast ship" oneway="0"/>
    <type id="highway.service" priority="1" numLanes="1" speed="5.56" allow="pedestrian delivery bicycle" oneway="0"/>
    <type id="highway.stairs" priority="1" numLanes="1" speed="1.39" allow="pedestrian" oneway="1" width="2.00"/>
    <type id="highway.step" priority="1" numLanes="1" speed="1.39" allow="pedestrian" oneway="1" width="2.00"/>
    <type id="highway.steps" priority="1" numLanes="1" speed="1.39" allow="pedestrian" oneway="1" width="2.00"/>
    <type id="highway.tertiary" priority="10" numLanes="1" speed="22.22" disallow="tram rail_urban rail rail_electric rail_fast ship" oneway="0"/>
    <type id="highway.tertiary_link" priority="5" numLanes="1" speed="22.22" disallow="tram rail_urban rail rail_electric rail_fast ship" oneway="0"/>
    <type id="highway.track" priority="1" numLanes="1" speed="5.56" allow="pedestrian motorcycle moped bicycle" oneway="0"/>
    <type id="highway.trunk" priority="13" numLanes="2" speed="27.78" disallow="pedestrian bicycle tram rail_urban rail rail_electric rail_fast ship" oneway="0"/>
    <type id="highway.trunk_link" priority="8" numLanes="1" speed="22.22" disallow="pedestrian bicycle tram rail_urban rail rail_electric rail_fast ship" oneway="0"/>
    <type id="highway.unclassified" priority="4" numLanes="1" speed="13.89" disallow="tram rail_urban rail rail_electric rail_fast ship" oneway="0"/>
    <type id="highway.unsurfaced" priority="1" numLanes="1" speed="8.33" disallow="tram rail_urban rail rail_electric rail_fast ship" oneway="0"/>
    <type id="railway.highspeed" priority="21" numLanes="1" speed="69.44" allow="rail_fast" oneway="1"/>
    <type id="railway.light_rail" priority="19" numLanes="1" speed="27.78" allow="rail_urban" oneway="1"/>
    <type id="railway.preserved" priority="16" numLanes="1" speed="27.78" allow="rail" oneway="1"/>
    <type id="railway.rail" priority="20" numLanes="1" speed="44.44" allow="rail" oneway="1"/>
    <type id="railway.subway" priority="18" numLanes="1" speed="27.78" allow="rail_urban" oneway="1"/>
    <type id="railway.tram" priority="17" numLanes="1" speed="13.89" allow="tram" oneway="1"/>

    <edge id=":176076288_0" function="internal">
        <lane id=":176076288_0_0" index="0" disallow="tram rail_urban rail rail_electric rail_fast ship" speed="3.65" length="4.67" shape="450.19,2644.25 449.39,2645.45 448.59,2645.85 447.79,2645.45 446.99,2644.25"/>
    </edge>
    <edge id=":176076295_0" function="internal">
        <lane id=":176076295_0_0" index="0" disallow="tram rail_urban rail rail_electric rail_fast ship" speed="6.53" length="9.09" shape="456.93,2247.89 454.45,2248.24 452.69,2249.29 451.62,2251.05 451.25,2253.50"/>
    </edge>
    <edge id=":176076295_1" function="internal">
        <lane id=":176076295_1_0" index="0" disallow="tram rail_urban rail rail_electric rail_fast ship" speed="13.41" length="14.45" shape="456.93,2247.89 442.48,2247.87"/>
        <lane id=":176076295_1_1" index="1" disallow="tram rail_urban rail rail_electric rail_fast ship" speed="13.41" length="14.45" shape="456.93,2244.69 442.48,2244.67"/>
    </edge>
    <edge id=":176076295_3" function="internal">
        <lane id=":176076295_3_0" index="0" disallow="tram rail_urban rail rail_electric rail_fast ship" speed="3.65" length="1.44" shape="456.93,2244.69 455.73,2243.89"/>
    </edge>
    <edge id=":176076295_16" function="internal">
        <lane id=":176076295_16_0" index="0" disallow="tram rail_urban rail rail_electric rail_fast ship" speed="3.65" length="3.23" shape="455.73,2243.89 455.33,2243.09 455.73,2242.29 456.94,2241.49"/>
    </edge>
    <edge id=":176076295_4" function="internal">
        <lane id=":176076295_4_0" index="0" disallow="tram rail_urban rail rail_electric rail_fast ship" speed="6.50" length="9.03" shape="451.37,2232.68 451.70,2235.13 452.74,2236.89 454.49,2237.94 456.94,2238.29"/>
    </edge>
    <edge id=":176076295_5" function="internal">
        <lane id=":176076295_5_0" index="0" disallow="tram rail_urban rail rail_electric rail_fast ship" speed="11.42" length="20.82" shape="451.37,2232.68 451.25,2253.50"/>
    </edge>
    <edge id=":176076295_6" function="internal">
        <lane id=":176076295_6_0" index="0" disallow="tram rail_urban rail rail_electric rail_fast ship" speed="8.70" length="16.89" shape="451.37,2232.68 450.78,2237.93 449.11,2241.68 446.34,2243.93 442.48,2244.67"/>
    </edge>
    <edge id=":176076295_7" function="internal">
        <lane id=":176076295_7_0" index="0" disallow="tram rail_urban rail rail_electric rail_fast ship" speed="3.65" length="4.67" shape="451.37,2232.68 450.56,2233.87 449.76,2234.27 448.96,2233.86 448.17,2232.66"/>
    </edge>
    <edge id=":176076295_8" function="internal">
        <lane id=":176076295_8_0" index="0" disallow="tram rail_urban rail rail_electric rail_fast ship" speed="6.54" length="9.10" shape="442.49,2238.27 444.96,2237.93 446.73,2236.87 447.80,2235.12 448.17,2232.66"/>
    </edge>
    <edge id=":176076295_9" function="internal">
        <lane id=":176076295_9_0" index="0" disallow="tram rail_urban rail rail_electric rail_fast ship" speed="13.41" length="14.45" shape="442.49,2238.27 456.94,2238.29"/>
        <lane id=":176076295_9_1" index="1" disallow="tram rail_urban rail rail_electric rail_fast ship" speed="13.41" length="14.45" shape="442.48,2241.47 456.94,2241.49"/>
    </edge>
    <edge id=":176076295_11" function="internal">
        <lane id=":176076295_11_0" index="0" disallow="tram rail_urban rail rail_electric rail_fast ship" speed="3.65" length="1.44" shape="442.48,2241.47 443.68,2242.28"/>
    </edge>
    <edge id=":176076295_17" function="internal">
        <lane id=":176076295_17_0" index="0" disallow="tram rail_urban rail rail_electric rail_fast ship" speed="3.65" length="3.23" shape="443.68,2242.28 444.08,2243.08 443.68,2243.88 442.48,2244.67"/>
    </edge>
    <edge id=":176076295_12" function="internal">
        <lane id=":176076295_12_0" index="0" disallow="tram rail_urban rail rail_electric rail_fast ship" speed="6.50" length="9.03" shape="448.05,2253.49 447.72,2251.03 446.67,2249.28 444.93,2248.23 442.48,2247.87"/>
    </edge>
    <edge id=":176076295_13" function="internal">
        <lane id=":176076295_13_0" index="0" disallow="tram rail_urban rail rail_electric rail_fast ship" speed="11.42" length="20.83" shape="448.05,2253.49 448.17,2232.66"/>
    </edge>
    <edge id=":176076295_14" function="internal">
        <lane id=":176076295_14_0" index="0" disallow="tram rail_urban rail rail_electric rail_fast ship" speed="8.69" length="16.89" shape="448.05,2253.49 448.63,2248.24 450.30,2244.49 453.07,2242.24 456.94,2241.49"/>
    </edge>
    <edge id=":176076295_15" function="internal">
        <lane id=":176076295_15_0" index="0" disallow="tram rail_urban rail rail_electric rail_fast ship" speed="3.65" length="4.67" shape="448.05,2253.49 448.86,2252.29 449.66,2251.89 450.46,2252.30 451.25,2253.50"/>
    </edge>
    <edge id=":176076307_0" function="internal">
        <lane id=":176076307_0_0" index="0" disallow="tram rail_urban rail rail_electric rail_fast ship" speed="3.65" length="4.67" shape="446.89,30.14 447.70,28.95 448.50,28.55 449.30,28.96 450.09,30.16"/>
    </edge>
    <edge id=":176078192_0" function="internal">
        <lane id=":176078192_0_0" index="0" disallow="tram rail_urban rail rail_electric rail_fast ship" speed="5.76" length="6.86" shape="253.54,2247.64 251.33,2247.85 249.75,2248.48 248.80,2249.53 248.48,2251.01"/>
    </edge>
    <edge id=":176078192_1" function="internal">
        <lane id=":176078192_1_0" index="0" disallow="tram rail_urban rail rail_electric rail_fast ship" speed="13.41" length="9.95" shape="253.54,2247.64 243.57,2247.58"/>
        <lane id=":176078192_1_1" index="1" disallow="tram rail_urban rail rail_electric rail_fast ship" speed="13.41" length="9.95" shape="253.54,2244.44 243.60,2244.38"/>
    </edge>
    <edge id=":176078192_3" function="internal">
        <lane id=":176078192_3_0" index="0" disallow="tram rail_urban rail rail_electric rail_fast ship" speed="3.65" length="1.44" shape="253.54,2244.44 252.34,2243.64"/>
    </edge>
    <edge id=":176078192_11" function="internal">
        <lane id=":176078192_11_0" index="0" disallow="tram rail_urban rail rail_electric rail_fast ship" speed="3.65" length="3.23" shape="252.34,2243.64 251.95,2242.84 252.35,2242.04 253.55,2241.24"/>
    </edge>
    <edge id=":176078192_4" function="internal">
        <lane id=":176078192_4_0" index="0" disallow="tram rail_urban rail rail_electric rail_fast ship" speed="5.61" length="6.46" shape="248.53,2235.17 248.83,2236.42 249.78,2237.32 251.35,2237.86 253.55,2238.04"/>
    </edge>
    <edge id=":176078192_5" function="internal">
        <lane id=":176078192_5_0" index="0" disallow="tram rail_urban rail rail_electric rail_fast ship" speed="13.41" length="15.84" shape="248.53,2235.17 248.48,2251.01"/>
    </edge>
    <edge id=":176078192_6" function="internal">
        <lane id=":176078192_6_0" index="0" disallow="tram rail_urban rail rail_electric rail_fast ship" speed="7.28" length="11.60" shape="248.53,2235.17 248.20,2239.22 247.27,2242.10 245.74,2243.83 243.60,2244.38"/>
    </edge>
    <edge id=":176078192_7" function="internal">
        <lane id=":176078192_7_0" index="0" disallow="tram rail_urban rail rail_electric rail_fast ship" speed="13.41" length="9.91" shape="243.66,2237.98 253.55,2238.04"/>
        <lane id=":176078192_7_1" index="1" disallow="tram rail_urban rail rail_electric rail_fast ship" speed="13.41" length="9.91" shape="243.63,2241.18 253.55,2241.24"/>
    </edge>
    <edge id=":176078192_9" function="internal">
        <lane id=":176078192_9_0" index="0" disallow="tram rail_urban rail rail_electric rail_fast ship" speed="7.45" length="2.22" shape="243.63,2241.18 245.76,2241.82"/>
    </edge>
    <edge id=":176078192_10" function="internal">
        <lane id=":176078192_10_0" index="0" disallow="tram rail_urban rail rail_electric rail_fast ship" speed="3.65" length="1.44" shape="243.63,2241.18 244.82,2242.00"/>
    </edge>
    <edge id=":176078192_12" function="internal">
        <lane id=":176078192_12_0" index="0" disallow="tram rail_urban rail rail_electric rail_fast ship" speed="7.45" length="9.88" shape="245.76,2241.82 247.27,2243.66 248.18,2246.73 248.48,2251.01"/>
    </edge>
    <edge id=":176078192_13" function="internal">
        <lane id=":176078192_13_0" index="0" disallow="tram rail_urban rail rail_electric rail_fast ship" speed="3.65" length="3.23" shape="244.82,2242.00 245.22,2242.80 244.81,2243.60 243.60,2244.38"/>
    </edge>
    <edge id=":176079690_0" function="internal">
        <lane id=":176079690_0_0" index="0" disallow="tram rail_urban rail rail_electric rail_fast ship" speed="13.41" length="0.29" shape="49.89,2248.26 49.61,2248.26"/>
        <lane id=":176079690_0_1" index="1" disallow="tram rail_urban rail rail_electric rail_fast ship" speed="13.41" length="0.29" shape="49.89,2245.06 49.60,2245.06"/>
    </edge>
    <edge id=":176079690_2" function="internal">
        <lane id=":176079690_2_0" index="0" disallow="tram rail_urban rail rail_electric rail_fast ship" speed="13.41" length="0.31" shape="49.58,2238.66 49.89,2238.66"/>
        <lane id=":176079690_2_1" index="1" disallow="tram rail_urban rail rail_electric rail_fast ship" speed="13.41" length="0.31" shape="49.59,2241.86 49.89,2241.86"/>
    </edge>
    <edge id=":176086435_0" function="internal">
        <lane id=":176086435_0_0" index="0" disallow="tram rail_urban rail rail_electric rail_fast ship" speed="6.55" length="9.11" shape="356.97,2247.88 354.49,2248.23 352.71,2249.29 351.64,2251.04 351.27,2253.50"/>
    </edge>
    <edge id=":176086435_1" function="internal">
        <lane id=":176086435_1_0" index="0" disallow="tram rail_urban rail rail_electric rail_fast ship" speed="13.41" length="14.46" shape="356.97,2247.88 342.50,2247.87"/>
        <lane id=":176086435_1_1" index="1" disallow="tram rail_urban rail rail_electric rail_fast ship" speed="13.41" length="14.46" shape="356.96,2244.68 342.51,2244.67"/>
    </edge>
    <edge id=":176086435_3" function="internal">
        <lane id=":176086435_3_0" index="0" disallow="tram rail_urban rail rail_electric rail_fast ship" speed="8.66" length="3.74" shape="356.96,2244.68 353.29,2243.97"/>
    </edge>
    <edge id=":176086435_4" function="internal">
        <lane id=":176086435_4_0" index="0" disallow="tram rail_urban rail rail_electric rail_fast ship" speed="3.65" length="1.44" shape="356.96,2244.68 355.76,2243.88"/>
    </edge>
    <edge id=":176086435_18" function="internal">
        <lane id=":176086435_18_0" index="0" disallow="tram rail_urban rail rail_electric rail_fast ship" speed="8.66" length="13.15" shape="353.29,2243.97 353.10,2243.93 350.34,2241.68 348.70,2237.92 348.17,2232.66"/>
    </edge>
    <edge id=":176086435_19" function="internal">
        <lane id=":176086435_19_0" index="0" disallow="tram rail_urban rail rail_electric rail_fast ship" speed="3.65" length="3.23" shape="355.76,2243.88 355.36,2243.08 355.76,2242.28 356.96,2241.48"/>
    </edge>
    <edge id=":176086435_5" function="internal">
        <lane id=":176086435_5_0" index="0" disallow="tram rail_urban rail rail_electric rail_fast ship" speed="6.49" length="9.03" shape="351.37,2232.68 351.71,2235.13 352.76,2236.88 354.50,2237.93 356.96,2238.28"/>
    </edge>
    <edge id=":176086435_6" function="internal">
        <lane id=":176086435_6_0" index="0" disallow="tram rail_urban rail rail_electric rail_fast ship" speed="10.06" length="20.82" shape="351.37,2232.68 351.27,2253.50"/>
    </edge>
    <edge id=":176086435_7" function="internal">
        <lane id=":176086435_7_0" index="0" disallow="tram rail_urban rail rail_electric rail_fast ship" speed="8.68" length="16.88" shape="351.37,2232.68 350.80,2237.93 349.13,2241.68 346.36,2243.93 342.51,2244.67"/>
    </edge>
    <edge id=":176086435_8" function="internal">
        <lane id=":176086435_8_0" index="0" disallow="tram rail_urban rail rail_electric rail_fast ship" speed="3.65" length="4.67" shape="351.37,2232.68 350.57,2233.87 349.77,2234.27 348.97,2233.87 348.17,2232.66"/>
    </edge>
    <edge id=":176086435_9" function="internal">
        <lane id=":176086435_9_0" index="0" disallow="tram rail_urban rail rail_electric rail_fast ship" speed="6.52" length="9.07" shape="342.53,2238.27 344.99,2237.92 346.75,2236.87 347.81,2235.12 348.17,2232.66"/>
    </edge>
    <edge id=":176086435_10" function="internal">
        <lane id=":176086435_10_0" index="0" disallow="tram rail_urban rail rail_electric rail_fast ship" speed="13.41" length="14.43" shape="342.53,2238.27 356.96,2238.28"/>
        <lane id=":176086435_10_1" index="1" disallow="tram rail_urban rail rail_electric rail_fast ship" speed="13.41" length="14.43" shape="342.52,2241.47 356.96,2241.48"/>
    </edge>
    <edge id=":176086435_12" function="internal">
        <lane id=":176086435_12_0" index="0" disallow="tram rail_urban rail rail_electric rail_fast ship" speed="8.67" length="3.70" shape="342.52,2241.47 346.15,2242.19"/>
    </edge>
    <edge id=":176086435_13" function="internal">
        <lane id=":176086435_13_0" index="0" disallow="tram rail_urban rail rail_electric rail_fast ship" speed="3.65" length="1.44" shape="342.52,2241.47 343.72,2242.27"/>
    </edge>
    <edge id=":176086435_20" function="internal">
        <lane id=":176086435_20_0" index="0" disallow="tram rail_urban rail rail_electric rail_fast ship" speed="8.67" length="13.16" shape="346.15,2242.19 346.37,2242.23 349.11,2244.49 350.75,2248.25 351.27,2253.50"/>
    </edge>
    <edge id=":176086435_21" function="internal">
        <lane id=":176086435_21_0" index="0" disallow="tram rail_urban rail rail_electric rail_fast ship" speed="3.65" length="3.23" shape="343.72,2242.27 344.11,2243.07 343.71,2243.87 342.51,2244.67"/>
    </edge>
    <edge id=":176086435_14" function="internal">
        <lane id=":176086435_14_0" index="0" disallow="tram rail_urban rail rail_electric rail_fast ship" speed="6.50" length="9.03" shape="348.07,2253.49 347.74,2251.03 346.69,2249.28 344.95,2248.22 342.50,2247.87"/>
    </edge>
    <edge id=":176086435_15" function="internal">
        <lane id=":176086435_15_0" index="0" disallow="tram rail_urban rail rail_electric rail_fast ship" speed="10.06" length="20.83" shape="348.07,2253.49 348.17,2232.66"/>
    </edge>
    <edge id=":176086435_16" function="internal">
        <lane id=":176086435_16_0" index="0" disallow="tram rail_urban rail rail_electric rail_fast ship" speed="8.70" length="16.90" shape="348.07,2253.49 348.65,2248.24 350.32,2244.49 353.09,2242.23 356.96,2241.48"/>
    </edge>
    <edge id=":176086435_17" function="internal">
        <lane id=":176086435_17_0" index="0" disallow="tram rail_urban rail rail_electric rail_fast ship" speed="3.65" length="4.67" shape="348.07,2253.49 348.88,2252.29 349.68,2251.89 350.48,2252.30 351.27,2253.50"/>
    </edge>
    <edge id=":176086437_0" function="internal">
        <lane id=":176086437_0_0" index="0" disallow="tram rail_urban rail rail_electric rail_fast ship" speed="6.23" length="8.20" shape="557.50,2248.04 554.99,2248.30 553.19,2249.11 552.11,2250.48 551.74,2252.40"/>
    </edge>
    <edge id=":176086437_1" function="internal">
        <lane id=":176086437_1_0" index="0" disallow="tram rail_urban rail rail_electric rail_fast ship" speed="13.41" length="16.21" shape="557.50,2248.04 541.30,2248.00"/>
        <lane id=":176086437_1_1" index="1" disallow="tram rail_urban rail rail_electric rail_fast ship" speed="13.41" length="16.21" shape="557.52,2244.84 541.30,2244.80"/>
    </edge>
    <edge id=":176086437_3" function="internal">
        <lane id=":176086437_3_0" index="0" disallow="tram rail_urban rail rail_electric rail_fast ship" speed="3.65" length="1.44" shape="557.52,2244.84 556.32,2244.03"/>
    </edge>
    <edge id=":176086437_16" function="internal">
        <lane id=":176086437_16_0" index="0" disallow="tram rail_urban rail rail_electric rail_fast ship" speed="3.65" length="3.23" shape="556.32,2244.03 555.93,2243.23 556.33,2242.43 557.54,2241.64"/>
    </edge>
    <edge id=":176086437_4" function="internal">
        <lane id=":176086437_4_0" index="0" disallow="tram rail_urban rail rail_electric rail_fast ship" speed="4.70" length="4.21" shape="555.03,2235.75 555.18,2236.92 555.65,2237.76 556.44,2238.27 557.55,2238.44"/>
    </edge>
    <edge id=":176086437_5" function="internal">
        <lane id=":176086437_5_0" index="0" disallow="tram rail_urban rail rail_electric rail_fast ship" speed="13.41" length="17.04" shape="555.03,2235.75 554.50,2241.23 553.37,2245.38 552.26,2248.88 551.74,2252.40"/>
    </edge>
    <edge id=":176086437_6" function="internal">
        <lane id=":176086437_6_0" index="0" disallow="tram rail_urban rail rail_electric rail_fast ship" speed="8.43" length="5.58" shape="551.83,2235.73 551.15,2239.70 550.26,2240.98"/>
    </edge>
    <edge id=":176086437_7" function="internal">
        <lane id=":176086437_7_0" index="0" disallow="tram rail_urban rail rail_electric rail_fast ship" speed="3.65" length="1.44" shape="551.83,2235.73 551.02,2236.93"/>
    </edge>
    <edge id=":176086437_17" function="internal">
        <lane id=":176086437_17_0" index="0" disallow="tram rail_urban rail rail_electric rail_fast ship" speed="8.43" length="10.22" shape="550.26,2240.98 549.17,2242.53 545.88,2244.23 541.30,2244.80"/>
    </edge>
    <edge id=":176086437_18" function="internal">
        <lane id=":176086437_18_0" index="0" disallow="tram rail_urban rail rail_electric rail_fast ship" speed="3.65" length="3.23" shape="551.02,2236.93 550.22,2237.32 549.42,2236.92 548.63,2235.71"/>
    </edge>
    <edge id=":176086437_8" function="internal">
        <lane id=":176086437_8_0" index="0" disallow="tram rail_urban rail rail_electric rail_fast ship" speed="6.32" length="8.42" shape="541.30,2238.40 544.50,2238.23 546.79,2237.73 548.16,2236.89 548.63,2235.71"/>
    </edge>
    <edge id=":176086437_9" function="internal">
        <lane id=":176086437_9_0" index="0" disallow="tram rail_urban rail rail_electric rail_fast ship" speed="13.41" length="16.25" shape="541.30,2238.40 557.55,2238.44"/>
        <lane id=":176086437_9_1" index="1" disallow="tram rail_urban rail rail_electric rail_fast ship" speed="13.41" length="16.25" shape="541.30,2241.60 557.54,2241.64"/>
    </edge>
    <edge id=":176086437_11" function="internal">
        <lane id=":176086437_11_0" index="0" disallow="tram rail_urban rail rail_electric rail_fast ship" speed="3.65" length="1.44" shape="541.30,2241.60 542.50,2242.40"/>
    </edge>
    <edge id=":176086437_19" function="internal">
        <lane id=":176086437_19_0" index="0" disallow="tram rail_urban rail rail_electric rail_fast ship" speed="3.65" length="3.23" shape="542.50,2242.40 542.90,2243.20 542.50,2244.00 541.30,2244.80"/>
    </edge>
    <edge id=":176086437_12" function="internal">
        <lane id=":176086437_12_0" index="0" disallow="tram rail_urban rail rail_electric rail_fast ship" speed="5.73" length="6.79" shape="545.34,2252.37 545.09,2250.46 544.34,2249.09 543.07,2248.27 541.30,2248.00"/>
    </edge>
    <edge id=":176086437_13" function="internal">
        <lane id=":176086437_13_0" index="0" disallow="tram rail_urban rail rail_electric rail_fast ship" speed="13.41" length="17.04" shape="545.34,2252.37 545.87,2246.89 546.99,2242.73 548.11,2239.23 548.63,2235.71"/>
    </edge>
    <edge id=":176086437_14" function="internal">
        <lane id=":176086437_14_0" index="0" disallow="tram rail_urban rail rail_electric rail_fast ship" speed="8.45" length="8.52" shape="548.54,2252.38 549.12,2247.67 550.81,2244.30"/>
    </edge>
    <edge id=":176086437_15" function="internal">
        <lane id=":176086437_15_0" index="0" disallow="tram rail_urban rail rail_electric rail_fast ship" speed="3.65" length="1.44" shape="548.54,2252.38 549.34,2251.19"/>
    </edge>
    <edge id=":176086437_20" function="internal">
        <lane id=":176086437_20_0" index="0" disallow="tram rail_urban rail rail_electric rail_fast ship" speed="8.45" length="7.42" shape="550.81,2244.30 553.62,2242.29 557.54,2241.64"/>
    </edge>
    <edge id=":176086437_21" function="internal">
        <lane id=":176086437_21_0" index="0" disallow="tram rail_urban rail rail_electric rail_fast ship" speed="3.65" length="3.23" shape="549.34,2251.19 550.15,2250.79 550.94,2251.20 551.74,2252.40"/>
    </edge>
    <edge id=":176086439_0" function="internal">
        <lane id=":176086439_0_0" index="0" disallow="tram rail_urban rail rail_electric rail_fast ship" speed="3.65" length="4.67" shape="594.11,2241.80 595.31,2242.61 595.71,2243.41 595.30,2244.21 594.10,2245.00"/>
    </edge>
    <edge id=":176096775_0" function="internal">
        <lane id=":176096775_0_0" index="0" disallow="tram rail_urban rail rail_electric rail_fast ship" speed="3.65" length="4.67" shape="349.16,2844.93 348.36,2846.13 347.56,2846.53 346.76,2846.12 345.96,2844.92"/>
    </edge>
    <edge id=":176104828_0" function="internal">
        <lane id=":176104828_0_0" index="0" disallow="tram rail_urban rail rail_electric rail_fast ship" speed="3.65" length="4.67" shape="333.41,98.99 333.07,97.59 333.31,96.73 334.15,96.41 335.57,96.63"/>
    </edge>
    <edge id=":2016798462_0" function="internal">
        <lane id=":2016798462_0_0" index="0" disallow="tram rail_urban rail rail_electric rail_fast ship" speed="3.65" length="4.67" shape="0.01,2245.27 -1.20,2244.47 -1.60,2243.68 -1.20,2242.87 -0.01,2242.07"/>
    </edge>
    <edge id=":2867824585_0" function="internal">
        <lane id=":2867824585_0_0" index="0" disallow="tram rail_urban rail rail_electric rail_fast ship" speed="13.41" length="7.89" shape="504.02,2247.97 496.13,2247.96"/>
        <lane id=":2867824585_0_1" index="1" disallow="tram rail_urban rail rail_electric rail_fast ship" speed="13.41" length="7.89" shape="504.03,2244.77 496.14,2244.76"/>
    </edge>
    <edge id=":2867824585_2" function="internal">
        <lane id=":2867824585_2_0" index="0" allow="pedestrian delivery bicycle" speed="7.34" length="2.18" shape="504.03,2244.77 501.93,2244.17"/>
    </edge>
    <edge id=":2867824585_9" function="internal">
        <lane id=":2867824585_9_0" index="0" allow="pedestrian delivery bicycle" speed="7.34" length="9.60" shape="501.93,2244.17 500.44,2242.39 499.54,2239.41 499.26,2235.25"/>
    </edge>
    <edge id=":2867824585_3" function="internal">
        <lane id=":2867824585_3_0" index="0" allow="pedestrian delivery bicycle" speed="4.54" length="3.85" shape="502.46,2235.26 502.55,2236.62 502.84,2237.59 503.34,2238.17 504.03,2238.37"/>
    </edge>
    <edge id=":2867824585_4" function="internal">
        <lane id=":2867824585_4_0" index="0" allow="pedestrian delivery bicycle" speed="7.64" length="12.85" shape="502.46,2235.26 502.05,2239.42 500.86,2242.39 498.89,2244.17 496.14,2244.76"/>
    </edge>
    <edge id=":2867824585_5" function="internal">
        <lane id=":2867824585_5_0" index="0" allow="pedestrian delivery bicycle" speed="3.65" length="4.67" shape="502.46,2235.26 501.65,2236.46 500.85,2236.86 500.05,2236.46 499.26,2235.25"/>
    </edge>
    <edge id=":2867824585_6" function="internal">
        <lane id=":2867824585_6_0" index="0" allow="pedestrian delivery bicycle" speed="5.05" length="5.01" shape="496.15,2238.36 497.51,2238.16 498.47,2237.58 499.06,2236.61 499.26,2235.25"/>
    </edge>
    <edge id=":2867824585_7" function="internal">
        <lane id=":2867824585_7_0" index="0" disallow="tram rail_urban rail rail_electric rail_fast ship" speed="13.41" length="7.88" shape="496.15,2238.36 504.03,2238.37"/>
        <lane id=":2867824585_7_1" index="1" disallow="tram rail_urban rail rail_electric rail_fast ship" speed="13.41" length="7.88" shape="496.14,2241.56 504.03,2241.57"/>
    </edge>
    <edge id=":2867855002_0" function="internal">
        <lane id=":2867855002_0_0" index="0" allow="pedestrian delivery bicycle" speed="5.04" length="5.00" shape="496.79,2297.80 496.59,2296.44 496.01,2295.47 495.04,2294.89 493.68,2294.70"/>
    </edge>
    <edge id=":2867855002_1" function="internal">
        <lane id=":2867855002_1_0" index="0" allow="pedestrian delivery bicycle" speed="5.56" length="10.14" shape="496.79,2297.80 497.18,2295.04 498.35,2293.07 500.31,2291.87 503.05,2291.46"/>
    </edge>
    <edge id=":2867855002_2" function="internal">
        <lane id=":2867855002_2_0" index="0" allow="pedestrian delivery bicycle" speed="3.65" length="4.67" shape="496.79,2297.80 497.59,2296.60 498.39,2296.20 499.19,2296.60 499.99,2297.80"/>
    </edge>
    <edge id=":2867855002_3" function="internal">